Circuit: * C:\Users\barbi\Downloads\Draft4.asc

D4: both pins shorted together -- ignoring.
.OP point found by inspection.

Date: Mon Sep 20 23:02:05 2021
Total elapsed time: 0.069 seconds.

tnom = 27
temp = 27
method = modified trap
totiter = 2962
traniter = 2962
tranpoints = 710
accept = 539
rejected = 171
matrix size = 4
fillins = 0
solver = Normal
Matrix Compiler1:       6 opcodes  0.0/[0.0]/0.0
Matrix Compiler2: 248 bytes object code size  0.0/0.0/[0.0]

