Circuit: * C:\Users\barbi\Downloads\Draft5.asc

.OP point found by inspection.
