Circuit: * C:\Users\barbi\Downloads\Draft6.asc

Direct Newton iteration for .op point succeeded.

Date: Wed Nov 10 16:13:49 2021
Total elapsed time: 0.046 seconds.

tnom = 27
temp = 27
method = modified trap
totiter = 2056
traniter = 2048
tranpoints = 1025
accept = 1025
rejected = 0
matrix size = 4
fillins = 0
solver = Normal
Matrix Compiler1:       6 opcodes  0.0/[0.0]/0.0
Matrix Compiler2: off  [0.0]/0.1/0.0

