Circuit: * C:\Users\barbi\Downloads\q3.asc

Direct Newton iteration for .op point succeeded.

Date: Tue Nov 09 00:17:56 2021
Total elapsed time: 0.092 seconds.

tnom = 27
temp = 27
method = modified trap
totiter = 11852
traniter = 11844
tranpoints = 4690
accept = 3133
rejected = 1557
matrix size = 13
fillins = 0
solver = Normal
Matrix Compiler1: 602 bytes object code size  0.7/0.1/[0.1]
Matrix Compiler2: 945 bytes object code size  0.1/0.1/[0.1]

